<?xml version="1.0" encoding="UTF-8"?>

<!-- generated on 2026-02-10T14:09:50.676400+05:30 by Eclipse SUMO netedit 1.25.0
-->

<routes xmlns:xsi="http://www.w3.org/2001/XMLSchema-instance" xsi:noNamespaceSchemaLocation="http://sumo.dlr.de/xsd/routes_file.xsd">
    <!-- Vehicles, persons and containers (sorted by depart) -->
    <flow id="f_0" begin="0.00" end="3600.00" number="1800" from="E0" to="E10"/>
    <flow id="f_1" begin="0.00" end="3600.00" number="1800" from="-E8" to="E11"/>
    <flow id="f_2" begin="0.00" end="3600.00" number="1800" from="-E9" to="E3"/>
    <flow id="f_3" begin="0.00" end="3600.00" number="1800" from="-E6" to="E8"/>
</routes>
