<?xml version="1.0" encoding="UTF-8"?>

<!-- generated on 2026-02-10T14:09:50.678035+05:30 by Eclipse SUMO sumo 1.25.0
-->

<sumoConfiguration xmlns:xsi="http://www.w3.org/2001/XMLSchema-instance" xsi:noNamespaceSchemaLocation="http://sumo.dlr.de/xsd/sumoConfiguration.xsd">

    <input>
        <net-file value="Intersection.net.xml"/>
        <route-files value="Intersection.rou.xml"/>
    </input>

</sumoConfiguration>
